backend/src/smart_meter_simulator/data/grids/cineldi_39_bus_semi_urban.glm
// Generated GridLAB-D model from the CINELDI LV reference grid
// Source: ../../../cineldi_lv_reference_system/lv_reference_grids/39_bus_semi_urban_reference_grid
// Regenerated by scripts/regen_reference_glm.py -- do not hand-edit;
// change the constants in that script and re-run instead.
//
// Base: 0.23 kV L-L, 0.050000 MVA -> Zbase 1.0580 ohm. Per-branch r/x are carried through exactly
// as resistance_ohm_per_km / reactance_ohm_per_km on each line; the
// line_configuration objects hold the nominal per-conductor values and exist
// for real GridLAB-D tooling (the explicit per-line values take priority in
// this backend's parser). capacity_kw comes from the MATPOWER rateA column.
//
// ref_lv_bus_1 is the MV substation busbar (12.7 kV L-N
// -> ~22 kV L-L on ABCN, matching TRANSFORMER_MV_KV). Its LV network hangs off
// 6 distribution transformers (pcc_1..pcc_6) rather than lines, which is
// what makes each group a microgrid zone: the loader partitions on the line-only
// graph, so everything behind a transformer is one zone, and that transformer is
// the PCC tripped to island it. Zone codes come from the transformer names
// (1..6) -- keep them below IOT_NUM_ZONES (default 10) or the
// parent bridge hashes them to an arbitrary zone_<n> stream instead of routing.
//
//
// Loads are the 2021-01-01 00:00:00 snapshot of p_load/q_load (VA), not a time series.
// No DER: the dataset ships none and this grid has no PV profile, so no
// zone can hold voltage on its own if islanded.
module powerflow;
module generators;

// ---- conductor types (nominal; per-line values below take priority) ----
object line_configuration {
    name "lc_pfsp_1x3x25_al";
    z11 1.2+0.082j ohm/km;
    resistance_ohm_per_km 1.2;
    reactance_ohm_per_km 0.082;
    impedance_length_unit km;
    // PFSP 1X3X25 AL, mean over 1 branches
}

object line_configuration {
    name "lc_pfsp_1x3x50_al";
    z11 0.641+0.079j ohm/km;
    resistance_ohm_per_km 0.641;
    reactance_ohm_per_km 0.079;
    impedance_length_unit km;
    // PFSP 1X3X50 AL, mean over 26 branches
}

object line_configuration {
    name "lc_tfsp_1x3x150_al";
    z11 0.206+0.072j ohm/km;
    resistance_ohm_per_km 0.206;
    reactance_ohm_per_km 0.072;
    impedance_length_unit km;
    // TFSP 1X3X150 AL, mean over 3 branches
}

object line_configuration {
    name "lc_tfsp_1x3x240_al";
    z11 0.125+0.072j ohm/km;
    resistance_ohm_per_km 0.125;
    reactance_ohm_per_km 0.072;
    impedance_length_unit km;
    // TFSP 1X3X240 AL, mean over 5 branches
}

object line_configuration {
    name "lc_tfsp_1x3x95_al";
    z11 0.32+0.079j ohm/km;
    resistance_ohm_per_km 0.32;
    reactance_ohm_per_km 0.079;
    impedance_length_unit km;
    // TFSP 1X3X95 AL, mean over 2 branches
}

object line_configuration {
    name "lc_tfxp_1x4x50_al";
    z11 0.641+0.079j ohm/km;
    resistance_ohm_per_km 0.641;
    reactance_ohm_per_km 0.079;
    impedance_length_unit km;
    // TFXP 1X4X50 AL, mean over 1 branches
}

// ---- buses ----
object meter {
    name "ref_lv_bus_1";
    phases ABCN;
    nominal_voltage 12700.00;
}

object meter {
    name "ref_lv_bus_38";
    phases ABCN;
    nominal_voltage 230.00;
}

object meter {
    name "ref_lv_bus_34";
    phases ABCN;
    nominal_voltage 230.00;
}

object meter {
    name "ref_lv_bus_12";
    phases ABCN;
    nominal_voltage 230.00;
}

object meter {
    name "ref_lv_bus_21";
    phases ABCN;
    nominal_voltage 230.00;
}

object meter {
    name "ref_lv_bus_18";
    phases ABCN;
    nominal_voltage 230.00;
}

object meter {
    name "ref_lv_bus_36";
    phases ABCN;
    nominal_voltage 230.00;
}

object meter {
    name "ref_lv_bus_29";
    phases ABCN;
    nominal_voltage 230.00;
}

object meter {
    name "ref_lv_bus_37";
    phases ABCN;
    nominal_voltage 230.00;
}

object meter {
    name "ref_lv_bus_30";
    phases ABCN;
    nominal_voltage 230.00;
}

object meter {
    name "ref_lv_bus_35";
    phases ABCN;
    nominal_voltage 230.00;
}

object meter {
    name "ref_lv_bus_27";
    phases ABCN;
    nominal_voltage 230.00;
}

object meter {
    name "ref_lv_bus_3";
    phases ABCN;
    nominal_voltage 230.00;
}

object meter {
    name "ref_lv_bus_26";
    phases ABCN;
    nominal_voltage 230.00;
}

object meter {
    name "ref_lv_bus_13";
    phases ABCN;
    nominal_voltage 230.00;
}

object meter {
    name "ref_lv_bus_14";
    phases ABCN;
    nominal_voltage 230.00;
}

object meter {
    name "ref_lv_bus_24";
    phases ABCN;
    nominal_voltage 230.00;
}

object meter {
    name "ref_lv_bus_15";
    phases ABCN;
    nominal_voltage 230.00;
}

object meter {
    name "ref_lv_bus_16";
    phases ABCN;
    nominal_voltage 230.00;
}

object meter {
    name "ref_lv_bus_17";
    phases ABCN;
    nominal_voltage 230.00;
}

object meter {
    name "ref_lv_bus_19";
    phases ABCN;
    nominal_voltage 230.00;
}

object meter {
    name "ref_lv_bus_25";
    phases ABCN;
    nominal_voltage 230.00;
}

object meter {
    name "ref_lv_bus_22";
    phases ABCN;
    nominal_voltage 230.00;
}

object meter {
    name "ref_lv_bus_4";
    phases ABCN;
    nominal_voltage 230.00;
}

object meter {
    name "ref_lv_bus_2";
    phases ABCN;
    nominal_voltage 230.00;
}

object meter {
    name "ref_lv_bus_6";
    phases ABCN;
    nominal_voltage 230.00;
}

object meter {
    name "ref_lv_bus_7";
    phases ABCN;
    nominal_voltage 230.00;
}

object meter {
    name "ref_lv_bus_23";
    phases ABCN;
    nominal_voltage 230.00;
}

object meter {
    name "ref_lv_bus_5";
    phases ABCN;
    nominal_voltage 230.00;
}

object meter {
    name "ref_lv_bus_9";
    phases ABCN;
    nominal_voltage 230.00;
}

object meter {
    name "ref_lv_bus_10";
    phases ABCN;
    nominal_voltage 230.00;
}

object meter {
    name "ref_lv_bus_33";
    phases ABCN;
    nominal_voltage 230.00;
}

object meter {
    name "ref_lv_bus_11";
    phases ABCN;
    nominal_voltage 230.00;
}

object meter {
    name "ref_lv_bus_20";
    phases ABCN;
    nominal_voltage 230.00;
}

object meter {
    name "ref_lv_bus_39";
    phases ABCN;
    nominal_voltage 230.00;
}

object meter {
    name "ref_lv_bus_31";
    phases ABCN;
    nominal_voltage 230.00;
}

object meter {
    name "ref_lv_bus_28";
    phases ABCN;
    nominal_voltage 230.00;
}

object meter {
    name "ref_lv_bus_8";
    phases ABCN;
    nominal_voltage 230.00;
}

object meter {
    name "ref_lv_bus_32";
    phases ABCN;
    nominal_voltage 230.00;
}

// ---- PCC transformers (CINELDI LV branches promoted to MV/LV units) ----
object transformer_configuration {
    name "pcc_1_cfg";
    connect_type WYE_WYE;
    power_rating 50;
    primary_voltage 12700.00;
    secondary_voltage 230.00;
    resistance 0.01900;
    reactance 0.03520;
    // sized for zone peak 7.6 kVA / PV 0 kW
    // x 1.25 -> next standard size
}

object transformer {
    name "pcc_1";
    phases ABCN;
    from "ref_lv_bus_1";
    to "ref_lv_bus_2";
    configuration "pcc_1_cfg";
    // replaces CINELDI branch 1-2 (33.0 m cable)
}

object transformer_configuration {
    name "pcc_2_cfg";
    connect_type WYE_WYE;
    power_rating 100;
    primary_voltage 12700.00;
    secondary_voltage 230.00;
    resistance 0.01600;
    reactance 0.03666;
    // sized for zone peak 42.9 kVA / PV 0 kW
    // x 1.25 -> next standard size
}

object transformer {
    name "pcc_2";
    phases ABCN;
    from "ref_lv_bus_1";
    to "ref_lv_bus_3";
    configuration "pcc_2_cfg";
    // replaces CINELDI branch 1-3 (56.0 m cable)
}

object transformer_configuration {
    name "pcc_3_cfg";
    connect_type WYE_WYE;
    power_rating 50;
    primary_voltage 12700.00;
    secondary_voltage 230.00;
    resistance 0.01900;
    reactance 0.03520;
    // sized for zone peak 23.5 kVA / PV 0 kW
    // x 1.25 -> next standard size
}

object transformer {
    name "pcc_3";
    phases ABCN;
    from "ref_lv_bus_1";
    to "ref_lv_bus_12";
    configuration "pcc_3_cfg";
    // replaces CINELDI branch 1-12 (100.0 m cable)
}

object transformer_configuration {
    name "pcc_4_cfg";
    connect_type WYE_WYE;
    power_rating 50;
    primary_voltage 12700.00;
    secondary_voltage 230.00;
    resistance 0.01900;
    reactance 0.03520;
    // sized for zone peak 16.6 kVA / PV 0 kW
    // x 1.25 -> next standard size
}

object transformer {
    name "pcc_4";
    phases ABCN;
    from "ref_lv_bus_1";
    to "ref_lv_bus_21";
    configuration "pcc_4_cfg";
    // replaces CINELDI branch 1-21 (152.0 m cable)
}

object transformer_configuration {
    name "pcc_5_cfg";
    connect_type WYE_WYE;
    power_rating 50;
    primary_voltage 12700.00;
    secondary_voltage 230.00;
    resistance 0.01900;
    reactance 0.03520;
    // sized for zone peak 28.4 kVA / PV 0 kW
    // x 1.25 -> next standard size
}

object transformer {
    name "pcc_5";
    phases ABCN;
    from "ref_lv_bus_1";
    to "ref_lv_bus_25";
    configuration "pcc_5_cfg";
    // replaces CINELDI branch 1-25 (115.0 m cable)
}

object transformer_configuration {
    name "pcc_6_cfg";
    connect_type WYE_WYE;
    power_rating 50;
    primary_voltage 12700.00;
    secondary_voltage 230.00;
    resistance 0.01900;
    reactance 0.03520;
    // sized for zone peak 21.0 kVA / PV 0 kW
    // x 1.25 -> next standard size
}

object transformer {
    name "pcc_6";
    phases ABCN;
    from "ref_lv_bus_1";
    to "ref_lv_bus_32";
    configuration "pcc_6_cfg";
    // replaces CINELDI branch 1-32 (168.0 m cable)
}

// ---- lines ----
object overhead_line {
    name "Line_2";
    phases ABCN;
    from "ref_lv_bus_3";
    to "ref_lv_bus_4";
    length 39.37 ft;
    configuration "lc_pfsp_1x3x50_al";
    resistance_ohm_per_km 0.641;
    reactance_ohm_per_km 0.079;
    impedance_length_unit km;
    capacity_kw 59.76;
    // PFSP 1X3X50 AL, 12.0 m
}

object overhead_line {
    name "Line_3";
    phases ABCN;
    from "ref_lv_bus_3";
    to "ref_lv_bus_5";
    length 52.49 ft;
    configuration "lc_pfsp_1x3x50_al";
    resistance_ohm_per_km 0.641;
    reactance_ohm_per_km 0.079;
    impedance_length_unit km;
    capacity_kw 59.76;
    // PFSP 1X3X50 AL, 16.0 m
}

object overhead_line {
    name "Line_4";
    phases ABCN;
    from "ref_lv_bus_3";
    to "ref_lv_bus_6";
    length 72.18 ft;
    configuration "lc_pfsp_1x3x50_al";
    resistance_ohm_per_km 0.641;
    reactance_ohm_per_km 0.079;
    impedance_length_unit km;
    capacity_kw 59.76;
    // PFSP 1X3X50 AL, 22.0 m
}

object overhead_line {
    name "Line_5";
    phases ABCN;
    from "ref_lv_bus_3";
    to "ref_lv_bus_7";
    length 104.99 ft;
    configuration "lc_pfsp_1x3x50_al";
    resistance_ohm_per_km 0.641;
    reactance_ohm_per_km 0.079;
    impedance_length_unit km;
    capacity_kw 59.76;
    // PFSP 1X3X50 AL, 32.0 m
}

object overhead_line {
    name "Line_6";
    phases ABCN;
    from "ref_lv_bus_3";
    to "ref_lv_bus_8";
    length 226.38 ft;
    configuration "lc_tfsp_1x3x240_al";
    resistance_ohm_per_km 0.125;
    reactance_ohm_per_km 0.072;
    impedance_length_unit km;
    capacity_kw 173.29;
    // TFSP 1X3X240 AL, 69.0 m
}

object overhead_line {
    name "Line_7";
    phases ABCN;
    from "ref_lv_bus_8";
    to "ref_lv_bus_9";
    length 88.58 ft;
    configuration "lc_pfsp_1x3x50_al";
    resistance_ohm_per_km 0.641;
    reactance_ohm_per_km 0.079;
    impedance_length_unit km;
    capacity_kw 59.76;
    // PFSP 1X3X50 AL, 27.0 m
}

object overhead_line {
    name "Line_8";
    phases ABCN;
    from "ref_lv_bus_8";
    to "ref_lv_bus_10";
    length 98.43 ft;
    configuration "lc_pfsp_1x3x50_al";
    resistance_ohm_per_km 0.641;
    reactance_ohm_per_km 0.079;
    impedance_length_unit km;
    capacity_kw 59.76;
    // PFSP 1X3X50 AL, 30.0 m
}

object overhead_line {
    name "Line_9";
    phases ABCN;
    from "ref_lv_bus_8";
    to "ref_lv_bus_11";
    length 124.67 ft;
    configuration "lc_pfsp_1x3x50_al";
    resistance_ohm_per_km 0.641;
    reactance_ohm_per_km 0.079;
    impedance_length_unit km;
    capacity_kw 59.76;
    // PFSP 1X3X50 AL, 38.0 m
}

object overhead_line {
    name "Line_11";
    phases ABCN;
    from "ref_lv_bus_12";
    to "ref_lv_bus_13";
    length 196.85 ft;
    configuration "lc_pfsp_1x3x50_al";
    resistance_ohm_per_km 0.641;
    reactance_ohm_per_km 0.079;
    impedance_length_unit km;
    capacity_kw 59.76;
    // PFSP 1X3X50 AL, 60.0 m
}

object overhead_line {
    name "Line_12";
    phases ABCN;
    from "ref_lv_bus_12";
    to "ref_lv_bus_14";
    length 52.49 ft;
    configuration "lc_pfsp_1x3x50_al";
    resistance_ohm_per_km 0.641;
    reactance_ohm_per_km 0.079;
    impedance_length_unit km;
    capacity_kw 59.76;
    // PFSP 1X3X50 AL, 16.0 m
}

object overhead_line {
    name "Line_13";
    phases ABCN;
    from "ref_lv_bus_12";
    to "ref_lv_bus_15";
    length 65.62 ft;
    configuration "lc_pfsp_1x3x50_al";
    resistance_ohm_per_km 0.641;
    reactance_ohm_per_km 0.079;
    impedance_length_unit km;
    capacity_kw 59.76;
    // PFSP 1X3X50 AL, 20.0 m
}

object overhead_line {
    name "Line_14";
    phases ABCN;
    from "ref_lv_bus_15";
    to "ref_lv_bus_16";
    length 3.28 ft;
    configuration "lc_pfsp_1x3x25_al";
    resistance_ohm_per_km 1.2;
    reactance_ohm_per_km 0.082;
    impedance_length_unit km;
    capacity_kw 39.84;
    // PFSP 1X3X25 AL, 1.0 m
}

object overhead_line {
    name "Line_15";
    phases ABCN;
    from "ref_lv_bus_12";
    to "ref_lv_bus_17";
    length 196.85 ft;
    configuration "lc_pfsp_1x3x50_al";
    resistance_ohm_per_km 0.641;
    reactance_ohm_per_km 0.079;
    impedance_length_unit km;
    capacity_kw 59.76;
    // PFSP 1X3X50 AL, 60.0 m
}

object overhead_line {
    name "Line_16";
    phases ABCN;
    from "ref_lv_bus_12";
    to "ref_lv_bus_18";
    length 357.61 ft;
    configuration "lc_tfsp_1x3x150_al";
    resistance_ohm_per_km 0.206;
    reactance_ohm_per_km 0.072;
    impedance_length_unit km;
    capacity_kw 133.45;
    // TFSP 1X3X150 AL, 109.0 m
}

object overhead_line {
    name "Line_17";
    phases ABCN;
    from "ref_lv_bus_18";
    to "ref_lv_bus_19";
    length 190.29 ft;
    configuration "lc_pfsp_1x3x50_al";
    resistance_ohm_per_km 0.641;
    reactance_ohm_per_km 0.079;
    impedance_length_unit km;
    capacity_kw 59.76;
    // PFSP 1X3X50 AL, 58.0 m
}

object overhead_line {
    name "Line_18";
    phases ABCN;
    from "ref_lv_bus_18";
    to "ref_lv_bus_20";
    length 124.67 ft;
    configuration "lc_tfxp_1x4x50_al";
    resistance_ohm_per_km 0.641;
    reactance_ohm_per_km 0.079;
    impedance_length_unit km;
    capacity_kw 71.71;
    // TFXP 1X4X50 AL, 38.0 m
}

object overhead_line {
    name "Line_20";
    phases ABCN;
    from "ref_lv_bus_21";
    to "ref_lv_bus_22";
    length 157.48 ft;
    configuration "lc_pfsp_1x3x50_al";
    resistance_ohm_per_km 0.641;
    reactance_ohm_per_km 0.079;
    impedance_length_unit km;
    capacity_kw 59.76;
    // PFSP 1X3X50 AL, 48.0 m
}

object overhead_line {
    name "Line_21";
    phases ABCN;
    from "ref_lv_bus_21";
    to "ref_lv_bus_23";
    length 88.58 ft;
    configuration "lc_pfsp_1x3x50_al";
    resistance_ohm_per_km 0.641;
    reactance_ohm_per_km 0.079;
    impedance_length_unit km;
    capacity_kw 59.76;
    // PFSP 1X3X50 AL, 27.0 m
}

object overhead_line {
    name "Line_22";
    phases ABCN;
    from "ref_lv_bus_21";
    to "ref_lv_bus_24";
    length 95.14 ft;
    configuration "lc_pfsp_1x3x50_al";
    resistance_ohm_per_km 0.641;
    reactance_ohm_per_km 0.079;
    impedance_length_unit km;
    capacity_kw 59.76;
    // PFSP 1X3X50 AL, 29.0 m
}

object overhead_line {
    name "Line_24";
    phases ABCN;
    from "ref_lv_bus_25";
    to "ref_lv_bus_26";
    length 104.99 ft;
    configuration "lc_pfsp_1x3x50_al";
    resistance_ohm_per_km 0.641;
    reactance_ohm_per_km 0.079;
    impedance_length_unit km;
    capacity_kw 59.76;
    // PFSP 1X3X50 AL, 32.0 m
}

object overhead_line {
    name "Line_25";
    phases ABCN;
    from "ref_lv_bus_25";
    to "ref_lv_bus_27";
    length 55.77 ft;
    configuration "lc_pfsp_1x3x50_al";
    resistance_ohm_per_km 0.641;
    reactance_ohm_per_km 0.079;
    impedance_length_unit km;
    capacity_kw 59.76;
    // PFSP 1X3X50 AL, 17.0 m
}

object overhead_line {
    name "Line_26";
    phases ABCN;
    from "ref_lv_bus_25";
    to "ref_lv_bus_28";
    length 259.19 ft;
    configuration "lc_tfsp_1x3x150_al";
    resistance_ohm_per_km 0.206;
    reactance_ohm_per_km 0.072;
    impedance_length_unit km;
    capacity_kw 133.45;
    // TFSP 1X3X150 AL, 79.0 m
}

object overhead_line {
    name "Line_27";
    phases ABCN;
    from "ref_lv_bus_28";
    to "ref_lv_bus_29";
    length 95.14 ft;
    configuration "lc_pfsp_1x3x50_al";
    resistance_ohm_per_km 0.641;
    reactance_ohm_per_km 0.079;
    impedance_length_unit km;
    capacity_kw 59.76;
    // PFSP 1X3X50 AL, 29.0 m
}

object overhead_line {
    name "Line_28";
    phases ABCN;
    from "ref_lv_bus_28";
    to "ref_lv_bus_30";
    length 39.37 ft;
    configuration "lc_pfsp_1x3x50_al";
    resistance_ohm_per_km 0.641;
    reactance_ohm_per_km 0.079;
    impedance_length_unit km;
    capacity_kw 59.76;
    // PFSP 1X3X50 AL, 12.0 m
}

object overhead_line {
    name "Line_29";
    phases ABCN;
    from "ref_lv_bus_28";
    to "ref_lv_bus_31";
    length 147.64 ft;
    configuration "lc_pfsp_1x3x50_al";
    resistance_ohm_per_km 0.641;
    reactance_ohm_per_km 0.079;
    impedance_length_unit km;
    capacity_kw 59.76;
    // PFSP 1X3X50 AL, 45.0 m
}

object overhead_line {
    name "Line_31";
    phases ABCN;
    from "ref_lv_bus_32";
    to "ref_lv_bus_33";
    length 45.93 ft;
    configuration "lc_tfsp_1x3x95_al";
    resistance_ohm_per_km 0.32;
    reactance_ohm_per_km 0.079;
    impedance_length_unit km;
    capacity_kw 103.58;
    // TFSP 1X3X95 AL, 14.0 m
}

object overhead_line {
    name "Line_32";
    phases ABCN;
    from "ref_lv_bus_32";
    to "ref_lv_bus_34";
    length 108.27 ft;
    configuration "lc_tfsp_1x3x95_al";
    resistance_ohm_per_km 0.32;
    reactance_ohm_per_km 0.079;
    impedance_length_unit km;
    capacity_kw 103.58;
    // TFSP 1X3X95 AL, 33.0 m
}

object overhead_line {
    name "Line_33";
    phases ABCN;
    from "ref_lv_bus_34";
    to "ref_lv_bus_35";
    length 91.86 ft;
    configuration "lc_pfsp_1x3x50_al";
    resistance_ohm_per_km 0.641;
    reactance_ohm_per_km 0.079;
    impedance_length_unit km;
    capacity_kw 59.76;
    // PFSP 1X3X50 AL, 28.0 m
}

object overhead_line {
    name "Line_34";
    phases ABCN;
    from "ref_lv_bus_34";
    to "ref_lv_bus_36";
    length 111.55 ft;
    configuration "lc_pfsp_1x3x50_al";
    resistance_ohm_per_km 0.641;
    reactance_ohm_per_km 0.079;
    impedance_length_unit km;
    capacity_kw 59.76;
    // PFSP 1X3X50 AL, 34.0 m
}

object overhead_line {
    name "Line_35";
    phases ABCN;
    from "ref_lv_bus_34";
    to "ref_lv_bus_37";
    length 68.90 ft;
    configuration "lc_pfsp_1x3x50_al";
    resistance_ohm_per_km 0.641;
    reactance_ohm_per_km 0.079;
    impedance_length_unit km;
    capacity_kw 59.76;
    // PFSP 1X3X50 AL, 21.0 m
}

object overhead_line {
    name "Line_36";
    phases ABCN;
    from "ref_lv_bus_32";
    to "ref_lv_bus_38";
    length 52.49 ft;
    configuration "lc_pfsp_1x3x50_al";
    resistance_ohm_per_km 0.641;
    reactance_ohm_per_km 0.079;
    impedance_length_unit km;
    capacity_kw 59.76;
    // PFSP 1X3X50 AL, 16.0 m
}

object overhead_line {
    name "Line_37";
    phases ABCN;
    from "ref_lv_bus_38";
    to "ref_lv_bus_39";
    length 39.37 ft;
    configuration "lc_pfsp_1x3x50_al";
    resistance_ohm_per_km 0.641;
    reactance_ohm_per_km 0.079;
    impedance_length_unit km;
    capacity_kw 59.76;
    // PFSP 1X3X50 AL, 12.0 m
}

// ---- loads (2021-01-01 00:00:00 snapshot, VA) ----
object load {
    name "Load_0";
    parent "ref_lv_bus_2";
    phases ABCN;
    constant_power_A 3182.0+646.1j;
    nominal_voltage 230.00;
}

object load {
    name "Load_1";
    parent "ref_lv_bus_4";
    phases ABCN;
    constant_power_A 2531.0+513.9j;
    nominal_voltage 230.00;
}

object load {
    name "Load_2";
    parent "ref_lv_bus_5";
    phases ABCN;
    constant_power_A 7761.0+1575.9j;
    nominal_voltage 230.00;
}

object load {
    name "Load_3";
    parent "ref_lv_bus_6";
    phases ABCN;
    constant_power_A 1842.0+374.0j;
    nominal_voltage 230.00;
}

object load {
    name "Load_4";
    parent "ref_lv_bus_7";
    phases ABCN;
    constant_power_A 4201.0+853.0j;
    nominal_voltage 230.00;
}

object load {
    name "Load_5";
    parent "ref_lv_bus_9";
    phases ABCN;
    constant_power_A 2351.0+477.4j;
    nominal_voltage 230.00;
}

object load {
    name "Load_6";
    parent "ref_lv_bus_10";
    phases ABCN;
    constant_power_A 1594.0+323.7j;
    nominal_voltage 230.00;
}

object load {
    name "Load_7";
    parent "ref_lv_bus_11";
    phases ABCN;
    constant_power_A 1915.0+388.9j;
    nominal_voltage 230.00;
}

object load {
    name "Load_8";
    parent "ref_lv_bus_13";
    phases ABCN;
    constant_power_A 1716.0+348.4j;
    nominal_voltage 230.00;
}

object load {
    name "Load_9";
    parent "ref_lv_bus_14";
    phases ABCN;
    constant_power_A 1377.0+279.6j;
    nominal_voltage 230.00;
}

object load {
    name "Load_10";
    parent "ref_lv_bus_15";
    phases ABCN;
    constant_power_A 1549.0+314.5j;
    nominal_voltage 230.00;
}

object load {
    name "Load_11";
    parent "ref_lv_bus_16";
    phases ABCN;
    constant_power_A 296.0+60.1j;
    nominal_voltage 230.00;
}

object load {
    name "Load_12";
    parent "ref_lv_bus_17";
    phases ABCN;
    constant_power_A 1584.0+321.6j;
    nominal_voltage 230.00;
}

object load {
    name "Load_13";
    parent "ref_lv_bus_19";
    phases ABCN;
    constant_power_A 1362.0+276.6j;
    nominal_voltage 230.00;
}

object load {
    name "Load_14";
    parent "ref_lv_bus_20";
    phases ABCN;
    constant_power_A 3732.0+757.8j;
    nominal_voltage 230.00;
}

object load {
    name "Load_15";
    parent "ref_lv_bus_22";
    phases ABCN;
    constant_power_A 4504.0+914.6j;
    nominal_voltage 230.00;
}

object load {
    name "Load_16";
    parent "ref_lv_bus_23";
    phases ABCN;
    constant_power_A 1995.0+405.1j;
    nominal_voltage 230.00;
}

object load {
    name "Load_17";
    parent "ref_lv_bus_24";
    phases ABCN;
    constant_power_A 3903.0+792.5j;
    nominal_voltage 230.00;
}

object load {
    name "Load_18";
    parent "ref_lv_bus_26";
    phases ABCN;
    constant_power_A 1583.0+321.4j;
    nominal_voltage 230.00;
}

object load {
    name "Load_19";
    parent "ref_lv_bus_27";
    phases ABCN;
    constant_power_A 3296.0+669.3j;
    nominal_voltage 230.00;
}

object load {
    name "Load_20";
    parent "ref_lv_bus_29";
    phases ABCN;
    constant_power_A 4572.0+928.4j;
    nominal_voltage 230.00;
}

object load {
    name "Load_21";
    parent "ref_lv_bus_30";
    phases ABCN;
    constant_power_A 5472.0+1111.1j;
    nominal_voltage 230.00;
}

object load {
    name "Load_22";
    parent "ref_lv_bus_31";
    phases ABCN;
    constant_power_A 2081.0+422.6j;
    nominal_voltage 230.00;
}

object load {
    name "Load_23";
    parent "ref_lv_bus_33";
    phases ABCN;
    constant_power_A 2047.0+415.7j;
    nominal_voltage 230.00;
}

object load {
    name "Load_24";
    parent "ref_lv_bus_35";
    phases ABCN;
    constant_power_A 1317.0+267.4j;
    nominal_voltage 230.00;
}

object load {
    name "Load_25";
    parent "ref_lv_bus_36";
    phases ABCN;
    constant_power_A 2451.0+497.7j;
    nominal_voltage 230.00;
}

object load {
    name "Load_26";
    parent "ref_lv_bus_37";
    phases ABCN;
    constant_power_A 2275.0+462.0j;
    nominal_voltage 230.00;
}

object load {
    name "Load_27";
    parent "ref_lv_bus_39";
    phases ABCN;
    constant_power_A 1361.0+276.4j;
    nominal_voltage 230.00;
}

// ---- PV (inverter first, solar parented to it) ----